<?xml version="1.0" encoding="utf-8"?>
<!DOCTYPE population SYSTEM "http://www.matsim.org/files/dtd/population_v5.dtd">

<population>

<!-- ====================================================================== -->

	<person id="pid0" employed="no">
		<plan selected="yes">
			<act type="home" x="578563.3349346751" y="182058.69516345678" end_time="06:00:00" />
			<leg mode="car">
			</leg>
			<act type="work" x="578042.4109299559" y="183608.06055564914" end_time="16:00:00" />
			<leg mode="car">
			</leg>
			<act type="home" x="578563.3349346751" y="182058.69516345678" />
		</plan>

	</person>

<!-- ====================================================================== -->

	<person id="pid1" employed="no">
		<plan selected="yes">
			<act type="home" x="578563.3349346751" y="182058.69516345678" end_time="06:00:00" />
			<leg mode="car">
			</leg>
			<act type="work" x="578042.4109299559" y="183608.06055564914" end_time="16:00:00" />
			<leg mode="car">
			</leg>
			<act type="home" x="578563.3349346751" y="182058.69516345678" />
		</plan>

	</person>

<!-- ====================================================================== -->

	<person id="pid10" employed="no">
		<plan selected="yes">
			<act type="home" x="578563.3349346751" y="182058.69516345678" end_time="06:00:00" />
			<leg mode="car">
			</leg>
			<act type="work" x="578042.4109299559" y="183608.06055564914" end_time="16:00:00" />
			<leg mode="car">
			</leg>
			<act type="home" x="578563.3349346751" y="182058.69516345678" />
		</plan>

	</person>

<!-- ====================================================================== -->

	<person id="pid11" employed="no">
		<plan selected="yes">
			<act type="home" x="578563.3349346751" y="182058.69516345678" end_time="06:00:00" />
			<leg mode="car">
			</leg>
			<act type="work" x="578042.4109299559" y="183608.06055564914" end_time="16:00:00" />
			<leg mode="car">
			</leg>
			<act type="home" x="578563.3349346751" y="182058.69516345678" />
		</plan>

	</person>

<!-- ====================================================================== -->

	<person id="pid12" employed="no">
		<plan selected="yes">
			<act type="home" x="578563.3349346751" y="182058.69516345678" end_time="06:00:00" />
			<leg mode="car">
			</leg>
			<act type="work" x="578042.4109299559" y="183608.06055564914" end_time="16:00:00" />
			<leg mode="car">
			</leg>
			<act type="home" x="578563.3349346751" y="182058.69516345678" />
		</plan>

	</person>

<!-- ====================================================================== -->

	<person id="pid13" employed="no">
		<plan selected="yes">
			<act type="home" x="578563.3349346751" y="182058.69516345678" end_time="06:00:00" />
			<leg mode="car">
			</leg>
			<act type="work" x="578042.4109299559" y="183608.06055564914" end_time="16:00:00" />
			<leg mode="car">
			</leg>
			<act type="home" x="578563.3349346751" y="182058.69516345678" />
		</plan>

	</person>

<!-- ====================================================================== -->

	<person id="pid14" employed="no">
		<plan selected="yes">
			<act type="home" x="578563.3349346751" y="182058.69516345678" end_time="06:00:00" />
			<leg mode="car">
			</leg>
			<act type="work" x="578042.4109299559" y="183608.06055564914" end_time="16:00:00" />
			<leg mode="car">
			</leg>
			<act type="home" x="578563.3349346751" y="182058.69516345678" />
		</plan>

	</person>

<!-- ====================================================================== -->

	<person id="pid15" employed="no">
		<plan selected="yes">
			<act type="home" x="578563.3349346751" y="182058.69516345678" end_time="06:00:00" />
			<leg mode="car">
			</leg>
			<act type="work" x="578042.4109299559" y="183608.06055564914" end_time="16:00:00" />
			<leg mode="car">
			</leg>
			<act type="home" x="578563.3349346751" y="182058.69516345678" />
		</plan>

	</person>

<!-- ====================================================================== -->

	<person id="pid16" employed="no">
		<plan selected="yes">
			<act type="home" x="578563.3349346751" y="182058.69516345678" end_time="06:00:00" />
			<leg mode="car">
			</leg>
			<act type="work" x="578042.4109299559" y="183608.06055564914" end_time="16:00:00" />
			<leg mode="car">
			</leg>
			<act type="home" x="578563.3349346751" y="182058.69516345678" />
		</plan>

	</person>

<!-- ====================================================================== -->

	<person id="pid17" employed="no">
		<plan selected="yes">
			<act type="home" x="578563.3349346751" y="182058.69516345678" end_time="06:00:00" />
			<leg mode="car">
			</leg>
			<act type="work" x="578042.4109299559" y="183608.06055564914" end_time="16:00:00" />
			<leg mode="car">
			</leg>
			<act type="home" x="578563.3349346751" y="182058.69516345678" />
		</plan>

	</person>

<!-- ====================================================================== -->

	<person id="pid18" employed="no">
		<plan selected="yes">
			<act type="home" x="578563.3349346751" y="182058.69516345678" end_time="06:00:00" />
			<leg mode="car">
			</leg>
			<act type="work" x="578042.4109299559" y="183608.06055564914" end_time="16:00:00" />
			<leg mode="car">
			</leg>
			<act type="home" x="578563.3349346751" y="182058.69516345678" />
		</plan>

	</person>

<!-- ====================================================================== -->

	<person id="pid19" employed="no">
		<plan selected="yes">
			<act type="home" x="578563.3349346751" y="182058.69516345678" end_time="06:00:00" />
			<leg mode="car">
			</leg>
			<act type="work" x="578042.4109299559" y="183608.06055564914" end_time="16:00:00" />
			<leg mode="car">
			</leg>
			<act type="home" x="578563.3349346751" y="182058.69516345678" />
		</plan>

	</person>

<!-- ====================================================================== -->

	<person id="pid2" employed="no">
		<plan selected="yes">
			<act type="home" x="578563.3349346751" y="182058.69516345678" end_time="06:00:00" />
			<leg mode="car">
			</leg>
			<act type="work" x="578042.4109299559" y="183608.06055564914" end_time="16:00:00" />
			<leg mode="car">
			</leg>
			<act type="home" x="578563.3349346751" y="182058.69516345678" />
		</plan>

	</person>

<!-- ====================================================================== -->

	<person id="pid20" employed="no">
		<plan selected="yes">
			<act type="home" x="578563.3349346751" y="182058.69516345678" end_time="06:00:00" />
			<leg mode="car">
			</leg>
			<act type="work" x="578042.4109299559" y="183608.06055564914" end_time="16:00:00" />
			<leg mode="car">
			</leg>
			<act type="home" x="578563.3349346751" y="182058.69516345678" />
		</plan>

	</person>

<!-- ====================================================================== -->

	<person id="pid21" employed="no">
		<plan selected="yes">
			<act type="home" x="578563.3349346751" y="182058.69516345678" end_time="06:00:00" />
			<leg mode="car">
			</leg>
			<act type="work" x="578042.4109299559" y="183608.06055564914" end_time="16:00:00" />
			<leg mode="car">
			</leg>
			<act type="home" x="578563.3349346751" y="182058.69516345678" />
		</plan>

	</person>

<!-- ====================================================================== -->

	<person id="pid22" employed="no">
		<plan selected="yes">
			<act type="home" x="578563.3349346751" y="182058.69516345678" end_time="06:00:00" />
			<leg mode="car">
			</leg>
			<act type="work" x="578042.4109299559" y="183608.06055564914" end_time="16:00:00" />
			<leg mode="car">
			</leg>
			<act type="home" x="578563.3349346751" y="182058.69516345678" />
		</plan>

	</person>

<!-- ====================================================================== -->

	<person id="pid23" employed="no">
		<plan selected="yes">
			<act type="home" x="578563.3349346751" y="182058.69516345678" end_time="06:00:00" />
			<leg mode="car">
			</leg>
			<act type="work" x="578042.4109299559" y="183608.06055564914" end_time="16:00:00" />
			<leg mode="car">
			</leg>
			<act type="home" x="578563.3349346751" y="182058.69516345678" />
		</plan>

	</person>

<!-- ====================================================================== -->

	<person id="pid24" employed="no">
		<plan selected="yes">
			<act type="home" x="578563.3349346751" y="182058.69516345678" end_time="06:00:00" />
			<leg mode="car">
			</leg>
			<act type="work" x="578042.4109299559" y="183608.06055564914" end_time="16:00:00" />
			<leg mode="car">
			</leg>
			<act type="home" x="578563.3349346751" y="182058.69516345678" />
		</plan>

	</person>

<!-- ====================================================================== -->

	<person id="pid25" employed="no">
		<plan selected="yes">
			<act type="home" x="578563.3349346751" y="182058.69516345678" end_time="06:00:00" />
			<leg mode="car">
			</leg>
			<act type="work" x="578042.4109299559" y="183608.06055564914" end_time="16:00:00" />
			<leg mode="car">
			</leg>
			<act type="home" x="578563.3349346751" y="182058.69516345678" />
		</plan>

	</person>

<!-- ====================================================================== -->

	<person id="pid26" employed="no">
		<plan selected="yes">
			<act type="home" x="578563.3349346751" y="182058.69516345678" end_time="06:00:00" />
			<leg mode="car">
			</leg>
			<act type="work" x="578042.4109299559" y="183608.06055564914" end_time="16:00:00" />
			<leg mode="car">
			</leg>
			<act type="home" x="578563.3349346751" y="182058.69516345678" />
		</plan>

	</person>

<!-- ====================================================================== -->

	<person id="pid27" employed="no">
		<plan selected="yes">
			<act type="home" x="578563.3349346751" y="182058.69516345678" end_time="06:00:00" />
			<leg mode="car">
			</leg>
			<act type="work" x="578042.4109299559" y="183608.06055564914" end_time="16:00:00" />
			<leg mode="car">
			</leg>
			<act type="home" x="578563.3349346751" y="182058.69516345678" />
		</plan>

	</person>

<!-- ====================================================================== -->

	<person id="pid28" employed="no">
		<plan selected="yes">
			<act type="home" x="578563.3349346751" y="182058.69516345678" end_time="06:00:00" />
			<leg mode="car">
			</leg>
			<act type="work" x="578042.4109299559" y="183608.06055564914" end_time="16:00:00" />
			<leg mode="car">
			</leg>
			<act type="home" x="578563.3349346751" y="182058.69516345678" />
		</plan>

	</person>

<!-- ====================================================================== -->

	<person id="pid29" employed="no">
		<plan selected="yes">
			<act type="home" x="578563.3349346751" y="182058.69516345678" end_time="06:00:00" />
			<leg mode="car">
			</leg>
			<act type="work" x="578042.4109299559" y="183608.06055564914" end_time="16:00:00" />
			<leg mode="car">
			</leg>
			<act type="home" x="578563.3349346751" y="182058.69516345678" />
		</plan>

	</person>

<!-- ====================================================================== -->

	<person id="pid3" employed="no">
		<plan selected="yes">
			<act type="home" x="578563.3349346751" y="182058.69516345678" end_time="06:00:00" />
			<leg mode="car">
			</leg>
			<act type="work" x="578042.4109299559" y="183608.06055564914" end_time="16:00:00" />
			<leg mode="car">
			</leg>
			<act type="home" x="578563.3349346751" y="182058.69516345678" />
		</plan>

	</person>

<!-- ====================================================================== -->

	<person id="pid30" employed="no">
		<plan selected="yes">
			<act type="home" x="578563.3349346751" y="182058.69516345678" end_time="06:00:00" />
			<leg mode="car">
			</leg>
			<act type="work" x="578042.4109299559" y="183608.06055564914" end_time="16:00:00" />
			<leg mode="car">
			</leg>
			<act type="home" x="578563.3349346751" y="182058.69516345678" />
		</plan>

	</person>

<!-- ====================================================================== -->

	<person id="pid31" employed="no">
		<plan selected="yes">
			<act type="home" x="578563.3349346751" y="182058.69516345678" end_time="06:00:00" />
			<leg mode="car">
			</leg>
			<act type="work" x="578042.4109299559" y="183608.06055564914" end_time="16:00:00" />
			<leg mode="car">
			</leg>
			<act type="home" x="578563.3349346751" y="182058.69516345678" />
		</plan>

	</person>

<!-- ====================================================================== -->

	<person id="pid32" employed="no">
		<plan selected="yes">
			<act type="home" x="578563.3349346751" y="182058.69516345678" end_time="06:00:00" />
			<leg mode="car">
			</leg>
			<act type="work" x="578042.4109299559" y="183608.06055564914" end_time="16:00:00" />
			<leg mode="car">
			</leg>
			<act type="home" x="578563.3349346751" y="182058.69516345678" />
		</plan>

	</person>

<!-- ====================================================================== -->

	<person id="pid33" employed="no">
		<plan selected="yes">
			<act type="home" x="578563.3349346751" y="182058.69516345678" end_time="06:00:00" />
			<leg mode="car">
			</leg>
			<act type="work" x="578042.4109299559" y="183608.06055564914" end_time="16:00:00" />
			<leg mode="car">
			</leg>
			<act type="home" x="578563.3349346751" y="182058.69516345678" />
		</plan>

	</person>

<!-- ====================================================================== -->

	<person id="pid34" employed="no">
		<plan selected="yes">
			<act type="home" x="578563.3349346751" y="182058.69516345678" end_time="06:00:00" />
			<leg mode="car">
			</leg>
			<act type="work" x="578042.4109299559" y="183608.06055564914" end_time="16:00:00" />
			<leg mode="car">
			</leg>
			<act type="home" x="578563.3349346751" y="182058.69516345678" />
		</plan>

	</person>

<!-- ====================================================================== -->

	<person id="pid35" employed="no">
		<plan selected="yes">
			<act type="home" x="578563.3349346751" y="182058.69516345678" end_time="06:00:00" />
			<leg mode="car">
			</leg>
			<act type="work" x="578042.4109299559" y="183608.06055564914" end_time="16:00:00" />
			<leg mode="car">
			</leg>
			<act type="home" x="578563.3349346751" y="182058.69516345678" />
		</plan>

	</person>

<!-- ====================================================================== -->

	<person id="pid36" employed="no">
		<plan selected="yes">
			<act type="home" x="578563.3349346751" y="182058.69516345678" end_time="06:00:00" />
			<leg mode="car">
			</leg>
			<act type="work" x="578042.4109299559" y="183608.06055564914" end_time="16:00:00" />
			<leg mode="car">
			</leg>
			<act type="home" x="578563.3349346751" y="182058.69516345678" />
		</plan>

	</person>

<!-- ====================================================================== -->

	<person id="pid37" employed="no">
		<plan selected="yes">
			<act type="home" x="578563.3349346751" y="182058.69516345678" end_time="06:00:00" />
			<leg mode="car">
			</leg>
			<act type="work" x="578042.4109299559" y="183608.06055564914" end_time="16:00:00" />
			<leg mode="car">
			</leg>
			<act type="home" x="578563.3349346751" y="182058.69516345678" />
		</plan>

	</person>

<!-- ====================================================================== -->

	<person id="pid38" employed="no">
		<plan selected="yes">
			<act type="home" x="578563.3349346751" y="182058.69516345678" end_time="06:00:00" />
			<leg mode="car">
			</leg>
			<act type="work" x="578042.4109299559" y="183608.06055564914" end_time="16:00:00" />
			<leg mode="car">
			</leg>
			<act type="home" x="578563.3349346751" y="182058.69516345678" />
		</plan>

	</person>

<!-- ====================================================================== -->

	<person id="pid39" employed="no">
		<plan selected="yes">
			<act type="home" x="578563.3349346751" y="182058.69516345678" end_time="06:00:00" />
			<leg mode="car">
			</leg>
			<act type="work" x="578042.4109299559" y="183608.06055564914" end_time="16:00:00" />
			<leg mode="car">
			</leg>
			<act type="home" x="578563.3349346751" y="182058.69516345678" />
		</plan>

	</person>

<!-- ====================================================================== -->

	<person id="pid4" employed="no">
		<plan selected="yes">
			<act type="home" x="578563.3349346751" y="182058.69516345678" end_time="06:00:00" />
			<leg mode="car">
			</leg>
			<act type="work" x="578042.4109299559" y="183608.06055564914" end_time="16:00:00" />
			<leg mode="car">
			</leg>
			<act type="home" x="578563.3349346751" y="182058.69516345678" />
		</plan>

	</person>

<!-- ====================================================================== -->

	<person id="pid40" employed="no">
		<plan selected="yes">
			<act type="home" x="578563.3349346751" y="182058.69516345678" end_time="06:00:00" />
			<leg mode="car">
			</leg>
			<act type="work" x="578042.4109299559" y="183608.06055564914" end_time="16:00:00" />
			<leg mode="car">
			</leg>
			<act type="home" x="578563.3349346751" y="182058.69516345678" />
		</plan>

	</person>

<!-- ====================================================================== -->

	<person id="pid41" employed="no">
		<plan selected="yes">
			<act type="home" x="578563.3349346751" y="182058.69516345678" end_time="06:00:00" />
			<leg mode="car">
			</leg>
			<act type="work" x="578042.4109299559" y="183608.06055564914" end_time="16:00:00" />
			<leg mode="car">
			</leg>
			<act type="home" x="578563.3349346751" y="182058.69516345678" />
		</plan>

	</person>

<!-- ====================================================================== -->

	<person id="pid42" employed="no">
		<plan selected="yes">
			<act type="home" x="578563.3349346751" y="182058.69516345678" end_time="06:00:00" />
			<leg mode="car">
			</leg>
			<act type="work" x="578042.4109299559" y="183608.06055564914" end_time="16:00:00" />
			<leg mode="car">
			</leg>
			<act type="home" x="578563.3349346751" y="182058.69516345678" />
		</plan>

	</person>

<!-- ====================================================================== -->

	<person id="pid43" employed="no">
		<plan selected="yes">
			<act type="home" x="578563.3349346751" y="182058.69516345678" end_time="06:00:00" />
			<leg mode="car">
			</leg>
			<act type="work" x="578042.4109299559" y="183608.06055564914" end_time="16:00:00" />
			<leg mode="car">
			</leg>
			<act type="home" x="578563.3349346751" y="182058.69516345678" />
		</plan>

	</person>

<!-- ====================================================================== -->

	<person id="pid44" employed="no">
		<plan selected="yes">
			<act type="home" x="578563.3349346751" y="182058.69516345678" end_time="06:00:00" />
			<leg mode="car">
			</leg>
			<act type="work" x="578042.4109299559" y="183608.06055564914" end_time="16:00:00" />
			<leg mode="car">
			</leg>
			<act type="home" x="578563.3349346751" y="182058.69516345678" />
		</plan>

	</person>

<!-- ====================================================================== -->

	<person id="pid45" employed="no">
		<plan selected="yes">
			<act type="home" x="578563.3349346751" y="182058.69516345678" end_time="06:00:00" />
			<leg mode="car">
			</leg>
			<act type="work" x="578042.4109299559" y="183608.06055564914" end_time="16:00:00" />
			<leg mode="car">
			</leg>
			<act type="home" x="578563.3349346751" y="182058.69516345678" />
		</plan>

	</person>

<!-- ====================================================================== -->

	<person id="pid46" employed="no">
		<plan selected="yes">
			<act type="home" x="578563.3349346751" y="182058.69516345678" end_time="06:00:00" />
			<leg mode="car">
			</leg>
			<act type="work" x="578042.4109299559" y="183608.06055564914" end_time="16:00:00" />
			<leg mode="car">
			</leg>
			<act type="home" x="578563.3349346751" y="182058.69516345678" />
		</plan>

	</person>

<!-- ====================================================================== -->

	<person id="pid47" employed="no">
		<plan selected="yes">
			<act type="home" x="578563.3349346751" y="182058.69516345678" end_time="06:00:00" />
			<leg mode="car">
			</leg>
			<act type="work" x="578042.4109299559" y="183608.06055564914" end_time="16:00:00" />
			<leg mode="car">
			</leg>
			<act type="home" x="578563.3349346751" y="182058.69516345678" />
		</plan>

	</person>

<!-- ====================================================================== -->

	<person id="pid48" employed="no">
		<plan selected="yes">
			<act type="home" x="578563.3349346751" y="182058.69516345678" end_time="06:00:00" />
			<leg mode="car">
			</leg>
			<act type="work" x="578042.4109299559" y="183608.06055564914" end_time="16:00:00" />
			<leg mode="car">
			</leg>
			<act type="home" x="578563.3349346751" y="182058.69516345678" />
		</plan>

	</person>

<!-- ====================================================================== -->

	<person id="pid49" employed="no">
		<plan selected="yes">
			<act type="home" x="578563.3349346751" y="182058.69516345678" end_time="06:00:00" />
			<leg mode="car">
			</leg>
			<act type="work" x="578042.4109299559" y="183608.06055564914" end_time="16:00:00" />
			<leg mode="car">
			</leg>
			<act type="home" x="578563.3349346751" y="182058.69516345678" />
		</plan>

	</person>

<!-- ====================================================================== -->

	<person id="pid5" employed="no">
		<plan selected="yes">
			<act type="home" x="578563.3349346751" y="182058.69516345678" end_time="06:00:00" />
			<leg mode="car">
			</leg>
			<act type="work" x="578042.4109299559" y="183608.06055564914" end_time="16:00:00" />
			<leg mode="car">
			</leg>
			<act type="home" x="578563.3349346751" y="182058.69516345678" />
		</plan>

	</person>

<!-- ====================================================================== -->

	<person id="pid50" employed="no">
		<plan selected="yes">
			<act type="home" x="578563.3349346751" y="182058.69516345678" end_time="06:00:00" />
			<leg mode="car">
			</leg>
			<act type="work" x="578042.4109299559" y="183608.06055564914" end_time="16:00:00" />
			<leg mode="car">
			</leg>
			<act type="home" x="578563.3349346751" y="182058.69516345678" />
		</plan>

	</person>

<!-- ====================================================================== -->

	<person id="pid51" employed="no">
		<plan selected="yes">
			<act type="home" x="578563.3349346751" y="182058.69516345678" end_time="06:00:00" />
			<leg mode="car">
			</leg>
			<act type="work" x="578042.4109299559" y="183608.06055564914" end_time="16:00:00" />
			<leg mode="car">
			</leg>
			<act type="home" x="578563.3349346751" y="182058.69516345678" />
		</plan>

	</person>

<!-- ====================================================================== -->

	<person id="pid52" employed="no">
		<plan selected="yes">
			<act type="home" x="578563.3349346751" y="182058.69516345678" end_time="06:00:00" />
			<leg mode="car">
			</leg>
			<act type="work" x="578042.4109299559" y="183608.06055564914" end_time="16:00:00" />
			<leg mode="car">
			</leg>
			<act type="home" x="578563.3349346751" y="182058.69516345678" />
		</plan>

	</person>

<!-- ====================================================================== -->

	<person id="pid53" employed="no">
		<plan selected="yes">
			<act type="home" x="578563.3349346751" y="182058.69516345678" end_time="06:00:00" />
			<leg mode="car">
			</leg>
			<act type="work" x="578042.4109299559" y="183608.06055564914" end_time="16:00:00" />
			<leg mode="car">
			</leg>
			<act type="home" x="578563.3349346751" y="182058.69516345678" />
		</plan>

	</person>

<!-- ====================================================================== -->

	<person id="pid54" employed="no">
		<plan selected="yes">
			<act type="home" x="578563.3349346751" y="182058.69516345678" end_time="06:00:00" />
			<leg mode="car">
			</leg>
			<act type="work" x="578042.4109299559" y="183608.06055564914" end_time="16:00:00" />
			<leg mode="car">
			</leg>
			<act type="home" x="578563.3349346751" y="182058.69516345678" />
		</plan>

	</person>

<!-- ====================================================================== -->

	<person id="pid55" employed="no">
		<plan selected="yes">
			<act type="home" x="578563.3349346751" y="182058.69516345678" end_time="06:00:00" />
			<leg mode="car">
			</leg>
			<act type="work" x="578042.4109299559" y="183608.06055564914" end_time="16:00:00" />
			<leg mode="car">
			</leg>
			<act type="home" x="578563.3349346751" y="182058.69516345678" />
		</plan>

	</person>

<!-- ====================================================================== -->

	<person id="pid56" employed="no">
		<plan selected="yes">
			<act type="home" x="578563.3349346751" y="182058.69516345678" end_time="06:00:00" />
			<leg mode="car">
			</leg>
			<act type="work" x="578042.4109299559" y="183608.06055564914" end_time="16:00:00" />
			<leg mode="car">
			</leg>
			<act type="home" x="578563.3349346751" y="182058.69516345678" />
		</plan>

	</person>

<!-- ====================================================================== -->

	<person id="pid57" employed="no">
		<plan selected="yes">
			<act type="home" x="578563.3349346751" y="182058.69516345678" end_time="06:00:00" />
			<leg mode="car">
			</leg>
			<act type="work" x="578042.4109299559" y="183608.06055564914" end_time="16:00:00" />
			<leg mode="car">
			</leg>
			<act type="home" x="578563.3349346751" y="182058.69516345678" />
		</plan>

	</person>

<!-- ====================================================================== -->

	<person id="pid58" employed="no">
		<plan selected="yes">
			<act type="home" x="578563.3349346751" y="182058.69516345678" end_time="06:00:00" />
			<leg mode="car">
			</leg>
			<act type="work" x="578042.4109299559" y="183608.06055564914" end_time="16:00:00" />
			<leg mode="car">
			</leg>
			<act type="home" x="578563.3349346751" y="182058.69516345678" />
		</plan>

	</person>

<!-- ====================================================================== -->

	<person id="pid59" employed="no">
		<plan selected="yes">
			<act type="home" x="578563.3349346751" y="182058.69516345678" end_time="06:00:00" />
			<leg mode="car">
			</leg>
			<act type="work" x="578042.4109299559" y="183608.06055564914" end_time="16:00:00" />
			<leg mode="car">
			</leg>
			<act type="home" x="578563.3349346751" y="182058.69516345678" />
		</plan>

	</person>

<!-- ====================================================================== -->

	<person id="pid6" employed="no">
		<plan selected="yes">
			<act type="home" x="578563.3349346751" y="182058.69516345678" end_time="06:00:00" />
			<leg mode="car">
			</leg>
			<act type="work" x="578042.4109299559" y="183608.06055564914" end_time="16:00:00" />
			<leg mode="car">
			</leg>
			<act type="home" x="578563.3349346751" y="182058.69516345678" />
		</plan>

	</person>

<!-- ====================================================================== -->

	<person id="pid60" employed="no">
		<plan selected="yes">
			<act type="home" x="578563.3349346751" y="182058.69516345678" end_time="06:00:00" />
			<leg mode="car">
			</leg>
			<act type="work" x="578042.4109299559" y="183608.06055564914" end_time="16:00:00" />
			<leg mode="car">
			</leg>
			<act type="home" x="578563.3349346751" y="182058.69516345678" />
		</plan>

	</person>

<!-- ====================================================================== -->

	<person id="pid61" employed="no">
		<plan selected="yes">
			<act type="home" x="578563.3349346751" y="182058.69516345678" end_time="06:00:00" />
			<leg mode="car">
			</leg>
			<act type="work" x="578042.4109299559" y="183608.06055564914" end_time="16:00:00" />
			<leg mode="car">
			</leg>
			<act type="home" x="578563.3349346751" y="182058.69516345678" />
		</plan>

	</person>

<!-- ====================================================================== -->

	<person id="pid62" employed="no">
		<plan selected="yes">
			<act type="home" x="578563.3349346751" y="182058.69516345678" end_time="06:00:00" />
			<leg mode="car">
			</leg>
			<act type="work" x="578042.4109299559" y="183608.06055564914" end_time="16:00:00" />
			<leg mode="car">
			</leg>
			<act type="home" x="578563.3349346751" y="182058.69516345678" />
		</plan>

	</person>

<!-- ====================================================================== -->

	<person id="pid63" employed="no">
		<plan selected="yes">
			<act type="home" x="578563.3349346751" y="182058.69516345678" end_time="06:00:00" />
			<leg mode="car">
			</leg>
			<act type="work" x="578042.4109299559" y="183608.06055564914" end_time="16:00:00" />
			<leg mode="car">
			</leg>
			<act type="home" x="578563.3349346751" y="182058.69516345678" />
		</plan>

	</person>

<!-- ====================================================================== -->

	<person id="pid64" employed="no">
		<plan selected="yes">
			<act type="home" x="578563.3349346751" y="182058.69516345678" end_time="06:00:00" />
			<leg mode="car">
			</leg>
			<act type="work" x="578042.4109299559" y="183608.06055564914" end_time="16:00:00" />
			<leg mode="car">
			</leg>
			<act type="home" x="578563.3349346751" y="182058.69516345678" />
		</plan>

	</person>

<!-- ====================================================================== -->

	<person id="pid65" employed="no">
		<plan selected="yes">
			<act type="home" x="578563.3349346751" y="182058.69516345678" end_time="06:00:00" />
			<leg mode="car">
			</leg>
			<act type="work" x="578042.4109299559" y="183608.06055564914" end_time="16:00:00" />
			<leg mode="car">
			</leg>
			<act type="home" x="578563.3349346751" y="182058.69516345678" />
		</plan>

	</person>

<!-- ====================================================================== -->

	<person id="pid66" employed="no">
		<plan selected="yes">
			<act type="home" x="578563.3349346751" y="182058.69516345678" end_time="06:00:00" />
			<leg mode="car">
			</leg>
			<act type="work" x="578042.4109299559" y="183608.06055564914" end_time="16:00:00" />
			<leg mode="car">
			</leg>
			<act type="home" x="578563.3349346751" y="182058.69516345678" />