<?xml version="1.0" encoding="utf-8"?>
<!DOCTYPE population SYSTEM "http://www.matsim.org/files/dtd/population_v5.dtd">

<population>
  <person id="353861057570531">
    <plan>
      <act type="home" x="593270.1818730838" y="119920.65023862042" end_time="9:44:56"/>
      <leg mode="walk"/>
      <act type="dummy" x="593217.5026404297" y="119952.51436025237" end_time="11:43:46"/>
      <leg mode="walk"/>
      <act type="dummy" x="594225.4243274346" y="119656.73306285401" end_time="11:48:12"/>
      <leg mode="car"/>
      <act type="dummy" x="594081.1157607405" y="119668.74799793768" end_time="11:52:46"/>
      <leg mode="car"/>
      <act type="dummy" x="594501.9422345057" y="119235.802555656" end_time="11:55:47"/>
      <leg mode="car"/>
      <act type="dummy" x="594410.8519861645" y="119043.36291007788" end_time="11:57:14"/>
      <leg mode="car"/>
      <act type="dummy" x="593103.113705588" y="118785.62594882252" end_time="11:58:13"/>
      <leg mode="walk"/>
      <act type="dummy" x="592933.9537820901" y="118706.5235153403" end_time="12:1:59"/>
      <leg mode="walk"/>
      <act type="dummy" x="537955.1820973345" y="152142.11583574075" end_time="22:43:16"/>
      <leg mode="car"/>
      <act type="dummy" x="546911.5467735749" y="149494.03858634987" end_time="22:53:26"/>
      <leg mode="car"/>
      <act type="dummy" x="574900.2841885044" y="181344.4790941208" end_time="23:30:8"/>
      <leg mode="walk"/>
      <act type="dummy" x="578034.584138883" y="183557.24832117523" end_time="23:33:8"/>
      <leg mode="walk"/>
      <act type="dummy" x="578049.5168692772" y="183599.17690175003" end_time="23:34:8"/>
      <leg mode="walk"/>
      <act type="dummy" x="577944.1230127228" y="183289.56595565996" end_time="23:35:9"/>
      <leg mode="walk"/>
      <act type="dummy" x="578001.1931063362" y="183238.0420676755" end_time="23:36:8"/>
      <leg mode="walk"/>
      <act type="dummy" x="578088.1121126789" y="183532.87915150268" end_time="23:37:9"/>
      <leg mode="walk"/>
      <act type="dummy" x="578088.1121126789" y="183532.87915150268" end_time="23:38:8"/>
      <leg mode="walk"/>
      <act type="dummy" x="578332.2477814686" y="183291.96048910634" end_time="23:40:8"/>
      <leg mode="walk"/>
      <act type="dummy" x="578283.425658013" y="183309.9491872402" end_time="23:41:9"/>
      <leg mode="walk"/>
      <act type="dummy" x="578034.1657401342" y="183038.18082559464" end_time="23:43:56"/>
      <leg mode="car"/>
      <act type="home" x="578283.425658013" y="183309.9491872402"/>
    </plan>
  </person>
  <person id="353861057570532">
    <plan>
      <act type="home" x="578332.2477814686" y="183291.96048910634" end_time="11:57:50"/>
      <leg mode="walk"/>
      <act type="dummy" x="577970.4865702046" y="183183.44956006893" end_time="11:59:7"/>
      <leg mode="walk"/>
      <act type="dummy" x="578037.7511024583" y="183151.819970409" end_time="12:2:42"/>
      <leg mode="walk"/>
      <act type="dummy" x="578037.7511024583" y="183151.819970409" end_time="12:5:42"/>
      <leg mode="car"/>
      <act type="dummy" x="578037.7511024583" y="183151.819970409" end_time="12:7:42"/>
      <leg mode="walk"/>
      <act type="dummy" x="578283.425658013" y="183309.9491872402" end_time="12:14:55"/>
      <leg mode="walk"/>
      <act type="dummy" x="578299.7118004241" y="183303.95286611217" end_time="12:15:55"/>
      <leg mode="walk"/>
      <act type="dummy" x="578034.1657401342" y="183038.18082559464" end_time="13:42:57"/>
      <leg mode="car"/>
      <act type="home" x="578283.425658013" y="183309.9491872402" end_time="18:23:59"/>
      <leg mode="walk"/>
      <act type="dummy" x="578332.2477814686" y="183291.96048910634" end_time="18:27:10"/>
      <leg mode="walk"/>
      <act type="dummy" x="578101.5056318461" y="183175.33389077778" end_time="18:30:1"/>
      <leg mode="walk"/>
      <act type="dummy" x="578088.1121126789" y="183532.87915150268" end_time="18:34:2"/>
      <leg mode="walk"/>
      <act type="dummy" x="578243.127327733" y="183818.56323921666" end_time="18:40:28"/>
      <leg mode="walk"/>
      <act type="dummy" x="578379.7310284188" y="183788.3812790213" end_time="18:47:20"/>
      <leg mode="walk"/>
      <act type="dummy" x="578628.8908627308" y="183770.94451500115" end_time="19:24:16"/>
      <leg mode="walk"/>
      <act type="dummy" x="578299.7118004241" y="183303.95286611217" end_time="19:35:36"/>
      <leg mode="walk"/>
      <act type="dummy" x="578332.2477814686" y="183291.96048910634" end_time="19:38:9"/>
      <leg mode="walk"/>
      <act type="dummy" x="578235.8173132107" y="183201.55922669667" end_time="22:31:40"/>
      <leg mode="walk"/>
      <act type="dummy" x="578332.2477814686" y="183291.96048910634" end_time="22:32:40"/>
      <leg mode="walk"/>
      <act type="dummy" x="578332.2477814686" y="183291.96048910634" end_time="22:33:49"/>
      <leg mode="walk"/>
      <act type="dummy" x="578332.2477814686" y="183291.96048910634" end_time="22:34:41"/>
      <leg mode="car"/>
      <act type="home" x="578332.2477814686" y="183291.96048910634"/>
    </plan>
  </person>
  <person id="353861057570533">
    <plan>
      <act type="home" x="578445.7799328225" y="182423.89040014794" end_time="9:3:4"/>
      <leg mode="walk"/>
      <act type="dummy" x="578431.9998514431" y="182418.85128753097" end_time="9:6:4"/>
      <leg mode="walk"/>
      <act type="dummy" x="578248.1464192056" y="182619.25824818033" end_time="9:18:33"/>
      <leg mode="walk"/>
      <act type="dummy" x="578285.136905003" y="182709.87570198608" end_time="9:22:24"/>
      <leg mode="walk"/>
      <act type="dummy" x="577907.9620749344" y="183030.16524136826" end_time="9:56:38"/>
      <leg mode="walk"/>
      <act type="dummy" x="577907.9620749344" y="183030.16524136826" end_time="9:58:11"/>
      <leg mode="walk"/>
      <act type="dummy" x="577907.9620749344" y="183030.16524136826" end_time="10:0:11"/>
      <leg mode="car"/>
      <act type="dummy" x="578418.2561534295" y="182413.81207498474" end_time="10:8:12"/>
      <leg mode="walk"/>
      <act type="dummy" x="578163.1133690326" y="182721.771064064" end_time="10:14:47"/>
      <leg mode="walk"/>
      <act type="dummy" x="578418.2561534295" y="182413.81207498474" end_time="10:26:44"/>
      <leg mode="walk"/>
      <act type="dummy" x="577907.9620749344" y="183030.16524136826" end_time="10:41:45"/>
      <leg mode="car"/>
      <act type="dummy" x="578002.592633924" y="182985.7117331805" end_time="11:22:28"/>
      <leg mode="car"/>
      <act type="dummy" x="577907.9620749344" y="183030.16524136826" end_time="11:37:22"/>
      <leg mode="walk"/>
      <act type="dummy" x="577907.9620749344" y="183030.16524136826" end_time="12:21:13"/>
      <leg mode="walk"/>
      <act type="dummy" x="578445.7799328225" y="182423.89040014794" end_time="12:26:15"/>
      <leg mode="walk"/>
      <act type="dummy" x="577907.9620749344" y="183030.16524136826" end_time="13:28:46"/>
      <leg mode="walk"/>
      <act type="dummy" x="578187.6009885778" y="183156.3591817156" end_time="13:32:12"/>
      <leg mode="walk"/>
      <act type="dummy" x="578418.2561534295" y="182413.81207498474" end_time="13:36:46"/>
      <leg mode="walk"/>
      <act type="dummy" x="578375.5281537031" y="182538.22089199672" end_time="13:37:47"/>
      <leg mode="walk"/>
      <act type="dummy" x="578445.7799328225" y="182423.89040014794" end_time="13:41:47"/>
      <leg mode="walk"/>
      <act type="dummy" x="578418.2561534295" y="182413.81207498474" end_time="13:43:56"/>
      <leg mode="car"/>
      <act type="dummy" x="578445.7799328225" y="182423.89040014794" end_time="13:48:4"/>
      <leg mode="car"/>
      <act type="dummy" x="578445.7799328225" y="182423.89040014794" end_time="14:3:50"/>
      <leg mode="car"/>
      <act type="dummy" x="578418.2561534295" y="182413.81207498474" end_time="14:52:3"/>
      <leg mode="car"/>
      <act type="dummy" x="578445.7799328225" y="182423.89040014794" end_time="14:57:0"/>
      <leg mode="car"/>
      <act type="dummy" x="578445.7799328225" y="182423.89040014794" end_time="15:2:36"/>
      <leg mode="walk"/>
      <act type="dummy" x="578418.2561534295" y="182413.81207498474" end_time="15:3:42"/>
      <leg mode="car"/>
      <act type="dummy" x="578418.2561534295" y="182413.81207498474" end_time="15:3:58"/>
      <leg mode="walk"/>
      <act type="dummy" x="578445.7799328225" y="182423.89040014794" end_time="15:6:18"/>
      <leg mode="walk"/>
      <act type="dummy" x="578445.7799328225" y="182423.89040014794" end_time="15:15:49"/>
      <leg mode="car"/>
      <act type="dummy" x="578445.7799328225" y="182423.89040014794" end_time="15:20:1"/>
      <leg mode="car"/>
      <act type="dummy" x="578445.7799328225" y="182423.89040014794" end_time="15:30:53"/>
      <leg mode="car"/>
      <act type="dummy" x="578445.7799328225" y="182423.89040014794" end_time="15:39:19"/>
      <leg mode="car"/>
      <act type="dummy" x="578445.7799328225" y="182423.89040014794" end_time="16:8:18"/>
      <leg mode="car"/>
      <act type="dummy" x="578445.7799328225" y="182423.89040014794" end_time="16:41:17"/>
      <leg mode="walk"/>
      <act type="dummy" x="578445.7799328225" y="182423.89040014794" end_time="16:54:21"/>
      <leg mode="car"/>
      <act type="dummy" x="578445.7799328225" y="182423.89040014794" end_time="16:55:18"/>
      <leg mode="walk"/>
      <act type="dummy" x="578418.2561534295" y="182413.81207498474" end_time="16:58:19"/>
      <leg mode="walk"/>
      <act type="dummy" x="577907.9620749344" y="183030.16524136826" end_time="17:31:50"/>
      <leg mode="walk"/>
      <act type="dummy" x="578176.8581297903" y="182727.233762757" end_time="18:45:2"/>
      <leg mode="walk"/>
      <act type="dummy" x="577907.9620749344" y="183030.16524136826" end_time="18:48:23"/>
      <leg mode="walk"/>
      <act type="dummy" x="577907.9620749344" y="183030.16524136826" end_time="18:50:31"/>
      <leg mode="walk"/>
      <act type="dummy" x="578283.425658013" y="183309.9491872402" end_time="18:53:31"/>
      <leg mode="walk"/>
      <act type="dummy" x="578332.2477814686" y="183291.96048910634" end_time="18:56:48"/>
      <leg mode="car"/>
      <act type="home" x="578034.1657401342" y="183038.18082559464" end_time="19:44:10"/>
      <leg mode="walk"/>
      <act type="dummy" x="578034.1657401342" y="183038.18082559464" end_time="20:23:14"/>
      <leg mode="walk"/>
      <act type="dummy" x="578285.136905003" y="182709.87570198608" end_time="20:24:15"/>
      <leg mode="walk"/>
      <act type="dummy" x="577907.9620749344" y="183030.16524136826" end_time="20:30:4"/>
      <leg mode="walk"/>
      <act type="dummy" x="577907.9620749344" y="183030.16524136826" end_time="20:32:16"/>
      <leg mode="walk"/>
      <act type="dummy" x="578418.2561534295" y="182413.81207498474" end_time="20:50:16"/>
      <leg mode="car"/>
      <act type="dummy" x="578431.9998514431" y="182418.85128753097" end_time="21:34:39"/>
      <leg mode="walk"/>
      <act type="dummy" x="578445.7799328225" y="182423.89040014794" end_time="21:40:52"/>
      <leg mode="car"/>
      <act type="home" x="578042.9840556554" y="183020.7612577867"/>
    </plan>
  </person>
  <person id="356843050864159">
    <plan>
      <act type="home" x="578599.6572743622" y="182622.6520073943" end_time="14:17:30"/>
      <leg mode="walk"/>
      <act type="dummy" x="578627.9515530366" y="182563.6040970669" end_time="14:29:23"/>
      <leg mode="car"/>
      <act type="dummy" x="578418.3305004449" y="182414.2358815515" end_time="16:8:23"/>
      <leg mode="walk"/>
      <act type="dummy" x="578446.1152508791" y="182426.00956623137" end_time="17:8:17"/>
      <leg mode="walk"/>
      <act type="dummy" x="578566.3876302321" y="182543.04523042717" end_time="17:11:12"/>
      <leg mode="car"/>
      <act type="dummy" x="578341.4165766066" y="182638.85052236158" end_time="18:0:16"/>
      <leg mode="walk"/>
      <act type="dummy" x="578435.3177568199" y="182510.8636765987" end_time="18:13:5"/>
      <leg mode="car"/>
      <act type="dummy" x="578435.3177568199" y="182510.8636765987" end_time="18:15:19"/>
      <leg mode="car"/>
      <act type="dummy" x="578045.1921408522" y="182987.67521572483" end_time="18:21:46"/>
      <leg mode="walk"/>
      <act type="dummy" x="577995.5023976003" y="183511.1680339213" end_time="18:30:7"/>
      <leg mode="bike"/>
      <act type="dummy" x="577995.5023976003" y="183511.1680339213" end_time="18:39:28"/>
      <leg mode="car"/>
      <act type="dummy" x="578148.6841601369" y="183493.6419965355" end_time="19:4:25"/>
      <leg mode="car"/>
      <act type="home" x="581128.9145385282" y="189254.73111246474" end_time="19:19:27"/>
      <leg mode="car"/>
      <act type="dummy" x="580148.5775441702" y="191601.379504978" end_time="19:25:30"/>
      <leg mode="car"/>
      <act type="dummy" x="578622.8589722466" y="191889.09693933258" end_time="19:32:41"/>
      <leg mode="walk"/>
      <act type="dummy" x="573506.1055802827" y="189753.61756174456" end_time="19:38:17"/>
      <leg mode="car"/>
      <act type="dummy" x="573506.1055802827" y="189753.61756174456" end_time="19:46:32"/>
      <leg mode="walk"/>
      <act type="dummy" x="582756.3606010053" y="190706.5071173084" end_time="19:49:35"/>
      <leg mode="car"/>
      <act type="home" x="580327.2407044104" y="188968.9508695651"/>
    </plan>
  </person>
  <person id="356843050864160">
    <plan>
      <act type="home" x="576198.7827556228" y="191070.48070853364" end_time="8:56:3"/>
      <leg mode="car"/>
      <act type="dummy" x="577904.2562597535" y="185744.2692398629" end_time="9:25:5"/>
      <leg mode="walk"/>
      <act type="dummy" x="578426.9566013897" y="184809.3863417995" end_time="9:29:5"/>
      <leg mode="car"/>
      <act type="dummy" x="578426.9566013897" y="184809.3863417995" end_time="11:15:14"/>
      <leg mode="bike"/>
      <act type="dummy" x="578426.9566013897" y="184809.3863417995" end_time="12:2:56"/>
      <leg mode="walk"/>
      <act type="dummy" x="578426.9566013897" y="184809.3863417995" end_time="13:54:9"/>
      <leg mode="car"/>
      <act type="dummy" x="578635.6003074026" y="185328.97754928216" end_time="13:57:54"/>
      <leg mode="car"/>
      <act type="dummy" x="580327.2407044104" y="188968.9508695651" end_time="14:8:1"/>
      <leg mode="car"/>
      <act type="dummy" x="582179.1023105695" y="186917.37359132146" end_time="14:22:38"/>
      <leg mode="car"/>
      <act type="dummy" x="580289.4689155554" y="188896.13419673042" end_time="15:17:17"/>
      <leg mode="car"/>
      <act type="dummy" x="580327.2407044104" y="188968.9508695651" end_time="15:54:5"/>
      <leg mode="car"/>
      <act type="dummy" x="574663.6806387117" y="185584.12837256023" end_time="18:18:10"/>
      <leg mode="bike"/>
      <act type="dummy" x="574663.6806387117" y="185584.12837256023" end_time="18:21:25"/>
      <leg mode="car"/>
      <act type="dummy" x="578016.4304716394" y="184123.03295636768" end_time="18:27:10"/>
      <leg mode="car"/>
      <act type="dummy" x="577723.3414923905" y="183561.37082619016" end_time="18:43:11"/>
      <leg mode="walk"/>
      <act type="dummy" x="577902.7750376019" y="185639.10355999155" end_time="18:45:55"/>
      <leg mode="walk"/>
      <act type="dummy" x="577841.7770699434" y="185782.66799659462" end_time="19:12:15"/>
      <leg mode="car"/>
      <act type="dummy" x="577653.3776954428" y="183405.1483348104" end_time="19:23:21"/>
      <leg mode="walk"/>
      <act type="dummy" x="577723.3414923905" y="183561.37082619016" end_time="19:29:38"/>
      <leg mode="car"/>
      <act type="home" x="577668.6429199643" y="183321.12410737827"/>
    </plan>
  </person>
  <person id="356843050864161">
    <plan>
      <act type="dummy" x="578661.246134159" y="182538.4644785669" end_time="9:38:35"/>
      <leg mode="car"/>
      <act type="dummy" x="578340.9115205525" y="182640.1245824399" end_time="11:6:8"/>
      <leg mode="walk"/>
      <act type="dummy" x="578433.5353928509" y="182511.2941939315" end_time="12:21:53"/>
      <leg mode="car"/>
      <act type="dummy" x="578433.5353928509" y="182511.2941939315" end_time="12:30:29"/>
      <leg mode="walk"/>
      <act type="dummy" x="578714.4526130084" y="184583.59284768067" end_time="12:31:58"/>
      <leg mode="walk"/>
      <act type="dummy" x="578714.4526130084" y="184583.59284768067" end_time="13:32:45"/>
      <leg mode="walk"/>
      <act type="dummy" x="578714.4526130084" y="184583.59284768067" end_time="13:59:38"/>
      <leg mode="car"/>
      <act type="dummy" x="578714.4526130084" y="184583.59284768067" end_time="14:8:47"/>
      <leg mode="walk"/>
      <act type="dummy" x="578430.0277627187" y="182417.162114208" end_time="14:10:14"/>
      <leg mode="walk"/>
      <act type="dummy" x="577909.7348274736" y="183027.19014675266" end_time="14:11:12"/>
      <leg mode="walk"/>
      <act type="dummy" x="578419.4529717446" y="182412.53552000134" end_time="15:41:2"/>
      <leg mode="walk"/>
      <act type="dummy" x="578419.4529717446" y="182412.53552000134" end_time="16:28:47"/>
      <leg mode="walk"/>
      <act type="dummy" x="578419.4529717446" y="182412.53552000134" end_time="16:29:47"/>
      <leg mode="walk"/>
      <act type="dummy" x="578164.5618009914" y="182719.64538506392" end_time="16:32:42"/>
      <leg mode="walk"/>
      <act type="dummy" x="578433.5353928509" y="182511.2941939315" end_time="16:58:42"/>
      <leg mode="walk"/>
      <act type="dummy" x="577910.8444798458" y="183022.09712790654" end_time="17:2:47"/>
      <leg mode="car"/>
      <act type="dummy" x="578433.5353928509" y="182511.2941939315" end_time="17:15:37"/>
      <leg mode="walk"/>
      <act type="dummy" x="578433.5353928509" y="182511.2941939315" end_time="18:31:40"/>
      <leg mode="car"/>
      <act type="dummy" x="578025.7129987503" y="184686.59653273603" end_time="19:30:26"/>
      <leg mode="car"/>
      <act type="dummy" x="581366.3477510975" y="188139.50644552542" end_time="19:36:24"/>
      <leg mode="walk"/>
      <act type="dummy" x="582000.7831739545" y="187885.22979207552" end_time="19:39:24"/>
      <leg mode="walk"/>
      <act type="dummy" x="581534.2950094992" y="189142.35220409482" end_time="19:58:41"/>
      <leg mode="walk"/>
      <act type="dummy" x="582467.4337999902" y="186628.57001220903" end_time="20:8:38"/>
      <leg mode="car"/>
      <act type="home" x="582467.4337999902" y="186628.57001220903"/>
    </plan>
  </person>
  <person id="354436058651611">
    <plan>
      <act type="home" x="578634.8595683965" y="182571.21271598066" end_time="13:57:41"/>
      <leg mode="walk"/>
      <act type="dummy" x="578625.5046688357" y="182541.1368614416" end_time="14:12:53"/>
      <leg mode="walk"/>
      <act type="dummy" x="578241.9990141271" y="183020.03221153884" end_time="15:5:30"/>
      <leg mode="walk"/>
      <act type="dummy" x="578218.9597380429" y="183051.07380763075" end_time="15:6:30"/>
      <leg mode="walk"/>
      <act type="dummy" x="578124.5215710797" y="183217.6570550922" end_time="15:9:32"/>
      <leg mode="walk"/>
      <act type="dummy" x="578145.5269377722" y="183218.00415389924" end_time="15:18:42"/>
      <leg mode="walk"/>
      <act type="dummy" x="578088.6592313172" y="183116.85857681738" end_time="15:27:22"/>
      <leg mode="walk"/>
      <act type="dummy" x="578056.2862802225" y="182975.3362055667" end_time="15:28:38"/>
      <leg mode="walk"/>
      <act type="dummy" x="578134.9906851299" y="182756.64825676577" end_time="15:35:35"/>
      <leg mode="car"/>
      <act type="home" x="578153.1301662151" y="182749.3725275842"/>
    </plan>
  </person>
  <person id="354436058651612">
    <plan>
      <act type="home" x="578729.6755962159" y="182534.40346417268" end_time="14:9:37"/>
      <leg mode="walk"/>
      <act type="dummy" x="578636.7707508275" y="182535.58353236393" end_time="17:1:15"/>
      <leg mode="walk"/>
      <act type="dummy" x="578496.0378666131" y="182600.12447314677" end_time="17:3:23"/>
      <leg mode="walk"/>
      <act type="dummy" x="578139.6458080779" y="182755.358973375" end_time="17:9:42"/>
      <leg mode="car"/>
      <act type="dummy" x="578136.8255651189" y="182750.70447345602" end_time="17:36:21"/>
      <leg mode="car"/>
      <act type="home" x="578151.164317619" y="182749.37972553022"/>
    </plan>
  </person>
  <person id="358270056288647">
    <plan>
      <act type="home" x="578636.0518459957" y="182568.66399390236" end_time="13:50:36"/>
      <leg mode="walk"/>
      <act type="dummy" x="578097.0169645915" y="182894.61214718613" end_time="15:13:3"/>
      <leg mode="walk"/>
      <act type="dummy" x="578022.9638898732" y="183120.0687233984" end_time="18:26:37"/>
      <leg mode="car"/>
      <act type="dummy" x="578014.3615334645" y="183126.88562947334" end_time="18:27:52"/>
      <leg mode="walk"/>
      <act type="dummy" x="578305.2027873755" y="183742.8516139824" end_time="18:41:54"/>
      <leg mode="walk"/>
      <act type="dummy" x="578011.9886723537" y="183134.951816012" end_time="19:37:7"/>
      <leg mode="walk"/>
      <act type="dummy" x="578097.470931609" y="182899.2753144833" end_time="22:37:56"/>
      <leg mode="car"/>
      <act type="home" x="578097.470931609" y="182899.2753144833"/>
    </plan>
  </person>
  <person id="358270056288648">
    <plan>
      <act type="dummy" x="578095.4817814577" y="182892.921479565" end_time="8:58:24"/>
      <leg mode="walk"/>
      <act type="dummy" x="578694.3242689079" y="182483.2164636395" end_time="9:7:40"/>
      <leg mode="bike"/>
      <act type="dummy" x="578694.3242689079" y="182483.2164636395" end_time="12:5:39"/>
      <leg mode="bike"/>
      <act type="dummy" x="578694.3242689079" y="182483.2164636395" end_time="12:12:36"/>
      <leg mode="walk"/>
      <act type="dummy" x="578694.3242689079" y="182483.2164636395" end_time="13:59:30"/>
      <leg mode="walk"/>
      <act type="dummy" x="578694.3242689079" y="182483.2164636395" end_time="14:0:46"/>
      <leg mode="bike"/>
      <act type="dummy" x="578694.3242689079" y="182483.2164636395" end_time="14:9:53"/>
      <leg mode="walk"/>
      <act type="dummy" x="578694.3242689079" y="182483.2164636395" end_time="14:12:26"/>
      <leg mode="car"/>
      <act type="dummy" x="578694.3242689079" y="182483.2164636395" end_time="14:35:37"/>
      <leg mode="walk"/>
      <act type="dummy" x="578694.3242689079" y="182483.2164636395" end_time="16:2:45"/>
      <leg mode="car"/>
      <act type="dummy" x="578694.3242689079" y="182483.2164636395" end_time="16:16:28"/>
      <leg mode="bike"/>
      <act type="dummy" x="578694.3242689079" y="182483.2164636395" end_time="17:42:44"/>
      <leg mode="walk"/>
      <act type="dummy" x="578694.3242689079" y="182483.2164636395" end_time="17:46:11"/>
      <leg mode="walk"/>
      <act type="dummy" x="578694.3242689079" y="182483.2164636395" end_time="17:48:23"/>
      <leg mode="walk"/>
      <act type="dummy" x="578694.3242689079" y="182483.2164636395" end_time="17:49:54"/>
      <leg mode="car"/>
      <act type="dummy" x="578694.3242689079" y="182483.2164636395" end_time="18:12:14"/>
      <leg mode="car"/>
      <act type="dummy" x="578694.3242689079" y="182483.2164636395" end_time="18:19:27"/>
      <leg mode="car"/>
      <act type="dummy" x="578694.3242689079" y="182483.2164636395" end_time="18:28:7"/>
      <leg mode="car"/>
      <act type="dummy" x="578694.3242689079" y="182483.2164636395" end_time="18:39:5"/>
      <leg mode="car"/>
      <act type="dummy" x="578694.3242689079" y="182483.2164636395" end_time="18:46:13"/>
      <leg mode="car"/>
      <act type="dummy" x="578694.3242689079" y="182483.2164636395" end_time="18:59:4"/>
      <leg mode="walk"/>
      <act type="dummy" x="578694.3242689079" y="182483.2164636395" end_time="19:1:0"/>
      <leg mode="walk"/>
      <act type="dummy" x="578694.3242689079" y="182483.2164636395" end_time="19:3:14"/>
      <leg mode="walk"/>
      <act type="dummy" x="578694.3242689079" y="182483.2164636395" end_time="19:5:51"/>
      <leg mode="car"/>
      <act type="dummy" x="578694.3242689079" y="182483.2164636395" end_time="19:9:26"/>
      <leg mode="walk"/>
      <act type="dummy" x="578694.3242689079" y="182483.2164636395" end_time="21:37:27"/>
      <leg mode="car"/>
      <act type="home" x="578694.3242689079" y="182483.2164636395"/>
    </plan>
  </person>
  <person id="358714052846049">
    <plan>
      <act type="home" x="578375.5281537031" y="182538.22089199672" end_time="12:32:16"/>
      <leg mode="walk"/>
      <act type="dummy" x="578577.8492243843" y="182054.46924383336" end_time="14:5:23"/>
      <leg mode="car"/>
      <act type="home" x="578582.0348379109" y="182064.2079497965"/>
    </plan>
  </person>
</population>